*Heading
** Job name: Job-1 Model name: Model-1
** Generated by: Abaqus/CAE 2022
*Preprint, echo=NO, model=NO, history=NO, contact=NO
**
** PARTS
**
*Part, name=Part-1
*Node
      1,          35.,          30.,           0.
      2,   16.5663338,          2.5,           0.
      3,    29.633667,          2.5,           0.
      4,   27.7199993,   7.11999989,           0.
      5,   -29.633667,          2.5,           0.
      6,  -16.5663338,          2.5,           0.
      7,  -27.7199993,   7.11999989,           0.
      8,          35.,          2.5,           0.
      9,         12.5,          2.5,           0.
     10,         12.5,   18.5685158,           0.
     11,          35.,         -25.,           0.
     12,         12.5,       -13.75,           0.
     13,   34.6437492,          30.,    4.9810195
     14,   33.5822525,          30.,   9.86063957
     15,   31.8371201,          30.,    14.539525
     16,   29.4438744,          30.,   18.9224281
     17,   26.4512348,          30.,    22.920126
     18,    22.920126,          30.,   26.4512348
     19,   18.9224281,          30.,   29.4438744
     20,    14.539525,          30.,   31.8371201
** ... 17558 like lines cut
*Element, type=C3D10
   1,   521,  1213,   479,  1214,  2469,  2468,  2467,  2471,  2470,  2472
   2,   650,  1215,   659,  1216,  2475,  2474,  2473,  2477,  2476,  2478
   3,  1214,  1217,   479,  1218,  2480,  2479,  2472,  2482,  2481,  2483
   4,   435,  1219,  1214,  1218,  2486,  2485,  2484,  2488,  2487,  2482
   5,  1214,   436,   478,   435,  2491,  2490,  2489,  2484,  2492,  2493
   6,  1214,  1213,  1220,  1221,  2470,  2495,  2494,  2497,  2496,  2498
   7,  1214,  1220,  1213,  1217,  2494,  2495,  2470,  2480,  2499,  2500
   8,  1222,  1223,  1224,  1225,  2503,  2502,  2501,  2505,  2504,  2506
   9,  1226,  1222,  1227,  1223,  2509,  2508,  2507,  2510,  2503,  2511
  10,  1227,  1223,  1228,  1226,  2511,  2513,  2512,  2507,  2510,  2514
  11,  1229,  1223,  1228,  1227,  2516,  2513,  2515,  2517,  2511,  2512
  12,  1222,  1226,  1230,  1224,  2509,  2519,  2518,  2501,  2520,  2521
  13,  1222,  1231,  1232,  1233,  2524,  2523,  2522,  2526,  2525,  2527
  14,  1222,  1227,  1233,  1232,  2508,  2528,  2526,  2522,  2529,  2527
  15,  1234,  1235,  1236,  1237,  2532,  2531,  2530,  2534,  2533,  2535
  16,  1234,  1235,  1238,  1236,  2532,  2537,  2536,  2530,  2531,  2538
  17,  1234,  1239,  1240,  1241,  2541,  2540,  2539,  2543,  2542,  2544
  18,  1234,  1242,  1239,  1243,  2546,  2545,  2541,  2548,  2547,  2549
  19,  1234,  1240,  1244,  1245,  2539,  2551,  2550,  2553,  2552,  2554
  20,  1234,  1243,  1241,  1246,  2548,  2555,  2543,  2557,  2556,  2558
** ... 11491 like lines cut
*Nset, nset=Set-1
     1,     2,     3,     4,     5,     6,     7,     8,     9,    10,    13,    14,    15,    16,    17,    18
    19,    20,    21,    22,    23,    24,    25,    26,    27,    28,    29,    30,    31,    32,    33,    34
    35,    36,    37,    38,    39,    40,    41,    42,    43,    44,    45,    46,    47,    48,    49,    50
    51,    52,    53,    54,    55,    56,    57,    58,    59,    60,    61,    62,    63,    64,    65,    66
    67,    68,    69,    70,    71,    72,    73,    74,    75,    76,    77,    78,    79,    80,    81,    82
    83,    84,    85,    86,    87,    88,    89,    90,    91,    92,    93,    94,    95,    96,    97,    98
    99,   100,   101,   102,   103,   104,   105,   106,   107,   108,   109,   110,   111,   112,   113,   114
   115,   116,   117,   118,   119,   120,   121,   122,   123,   124,   125,   126,   127,   128,   129,   130
   131,   132,   133,   134,   135,   136,   137,   138,   139,   140,   141,   142,   143,   144,   145,   146
   147,   148,   149,   150,   151,   152,   153,   154,   155,   156,   157,   158,   159,   160,   161,   162
   163,   164,   165,   166,   167,   168,   169,   241,   242,   243,   244,   245,   246,   247,   248,   249
   250,   251,   252,   253,   254,   255,   256,   257,   258,   259,   260,   261,   262,   263,   264,   265
   266,   267,   268,   269,   270,   271,   272,   273,   274,   275,   276,   277,   278,   279,   280,   281
   282,   283,   284,   285,   286,   287,   288,   289,   290,   291,   292,   293,   294,   295,   296,   297
   298,   299,   300,   301,   302,   303,   304,   305,   306,   307,   308,   309,   310,   311,   312,   313
   314,   315,   316,   317,   318,   319,   320,   321,   322,   323,   324,   325,   326,   327,   328,   329
   330,   331,   332,   333,   334,   335,   336,   337,   338,   339,   340,   341,   342,   343,   344,   345
   346,   347,   348,   349,   350,   351,   352,   353,   354,   355,   356,   357,   358,   359,   360,   361
   362,   363,   364,   365,   366,   367,   368,   369,   370,   371,   372,   373,   374,   375,   376,   377
   378,   379,   380,   381,   382,   383,   384,   385,   386,   387,   388,   389,   390,   391,   392,   393
** ... 546 like lines cut
*Elset, elset=Set-1, generate
    1,  5737,     1
*Nset, nset=Set-2
     2,     3,     5,     6,     8,     9,    11,    12,    56,    57,    60,    61,    64,    65,    66,    67
    68,    69,    70,    71,    72,    73,    74,    75,    76,    77,    78,    79,    80,    81,    82,    83
    84,    85,    86,    87,    88,    89,    95,    96,    97,    98,    99,   100,   101,   102,   103,   104
   105,   106,   107,   108,   109,   110,   111,   112,   113,   114,   115,   116,   117,   118,   119,   120
   121,   122,   123,   124,   125,   126,   127,   128,   129,   130,   131,   132,   133,   134,   135,   136
   137,   138,   139,   140,   141,   142,   143,   144,   145,   146,   147,   148,   149,   150,   151,   152
   170,   171,   172,   173,   174,   175,   176,   177,   178,   179,   180,   181,   182,   183,   184,   185
   186,   187,   188,   189,   190,   191,   192,   193,   194,   195,   196,   197,   198,   199,   200,   201
   202,   203,   204,   205,   206,   207,   208,   209,   210,   211,   212,   213,   214,   215,   216,   217
   218,   219,   220,   221,   222,   223,   224,   225,   226,   227,   228,   229,   230,   231,   232,   233
   234,   235,   236,   237,   238,   239,   240,   649,   650,   651,   652,   653,   654,   655,   656,   657
   658,   659,   660,   661,   662,   663,   664,   665,   666,   667,   668,   669,   670,   671,   672,   673
   674,   675,   676,   677,   678,   679,   680,   681,   682,   683,   684,   685,   686,   687,   688,   689
   690,   691,   692,   693,   694,   695,   696,   697,   698,   699,   700,   701,   702,   703,   704,   705
   706,   707,   708,   709,   710,   711,   712,   713,   714,   715,   716,   761,   762,   763,   764,   765
   766,   767,   768,   769,   770,   771,   772,   773,   774,   775,   776,   777,   778,   779,   780,   781
   782,   783,   784,   785,   786,   787,   788,   789,   790,   791,   792,   793,   794,   795,   796,   797
   798,   799,   800,   801,   802,   803,   804,   805,   806,   807,   808,   809,   810,   811,   812,   813
   814,   815,   816,   817,   818,   819,   820,   821,   822,   823,   824,   825,   826,   827,   828,   829
   830,   831,   832,   833,   834,   835,   836,   837,   838,   839,   840,   841,   842,   843,   844,   845
** ... 549 like lines cut
*Elset, elset=Set-2, generate
  5738,  11511,      1
** Section: Section-1
*Solid Section, elset=Set-1, material=Material-1
,
** Section: Section-2
*Solid Section, elset=Set-2, material=Material-2
,
*End Part
**  
**
** ASSEMBLY
**
*Assembly, name=Assembly
**  
*Instance, name=Part-1-1, part=Part-1
*End Instance
**  
*End Assembly
** 
** MATERIALS
** 
*Material, name=Material-1
*Elastic
 2e+06, 0.3
*Material, name=Material-2
*Elastic
70000., 0.34
